Gurobi/case_30.m
 function mpc = case_30
%% MATPOWER Case Format : Version 2
mpc.version = '2';

%%-----  Power Flow Data  -----%%
%% system MVA base
mpc.baseMVA = 100;

%% bus data
mpc.bus = [
	1	3	0	0	0	0	1	1	0	12.66	1	1	1;
	2	2	0	0	0	0	1	1	0	12.66	1	1.1	0.9;
	3	1	90	40	0	0	1	1	0	12.66	1	1.1	0.9;
	4	2	0	0	0	0	1	1	0	12.66	1	1.1	0.9;
	5	2	0	0	0	0	1	1	0	12.66	1	1.1	0.9;
	6	2	0	0	0	0	1	1	0	12.66	1	1.1	0.9;
	7	2	0	0	0	0	1	1	0	12.66	1	1.1	0.9;
	8	2	0	0	0	0	1	1	0	12.66	1	1.1	0.9;
	9	2	0	0	0	0	1	1	0	12.66	1	1.1	0.9;
	10	2	0	0	0	0	1	1	0	12.66	1	1.1	0.9;
	11	1	45	30	0	0	1	1	0	12.66	1	1.1	0.9;
 	12	2	0	0	0	0	1	1	0	12.66	1	1.1	0.9;
];
%% generator data
mpc.gen = [
	1	0	0	0	   0	  1  100	1	300	    -100	 0	 0	0	0	0	0	0	0	0	0	0;
    2   0	0	100   -50    1	 100	1   49.8    0        0   0  0   0   0   0   0   0   0   0   0;
    4	0	0	13.4   -20    1	 100	1	3.42    3.42	 0   0	0	0	0	0	0	0	0	0	0;
    5   0	0	45.6   -20    1	 100	1	11.4	0	     0	 0	0	0	0	0	0	0	0	0   0;
    6   0	0	60.7   -20	  1	 100	1	28.6    28.6     0	 0	0	0	0	0	0	0	0	0	0;
    7   0	0	28.5   -20    1	 100	1	7.49    7.49	 0	 0	0	0	0	0	0	0	0	0	0;
    8	0	0   30	   -50    1	 100	1	1.26    0	     0	 0	0	0	0	0	0	0	0	0	0;
    9   0	0	50     -20    1	 100	1	2.5	    0	     0	 0	0	0	0	0	0	0	0	0	0;
    10	0	0	30.7   -30    1	 100	1	8.6	    0	     0	 0	0	0	0	0	0	0	0	0	0;
    12	0	0	20.5   -10    1	 100	1	5.42    5.42     0	 0	0	0	0	0	0	0	0	0	0;
];

%% branch data
mpc.branch = [
    1   4     0.000294	 0.001031	    0	  125	  0	      0	      0	      0	       1	  0	      0;
    1   7     0.001647	 0.075368	    0	 137.13	  0	      0	   1.0375	  0	       1	  0	      0;
    2   3      0.05	      0.2	      0.02	  130	 130	 130	  0	      0	       1	-360	 360;
    2   4      0.05	      0.12	      0.01	   70	  70	  70	  0	      0	       1	-360	 360;
    4   5     0.000989	 0.05451	    0	 144.52   0	       0	  1	      0    	   1	  0	      0;
    4   10    0.000294	0.001031	    0	   40	  0	       0	  0	      0	       1	  0	      0;
    5   6     0.000184	 0.013522	    0	 633.62	  0	       0	  1	      0	       1	  0	      0;
    7   8     0.003616	 0.016546	0.00308	 165.22	  0	       0	  0	      0	       1	  0 	  0;
    8   9     0.014094	 0.380702	    0	  45.5	  0	       0	  1	      0	       1	  0	      0;
    10  11    0.004782	 0.152801	    0	 100.71	  0	       0	  1	      0	       1	  0	      0;
    11  12    0.009547	 0.223636	    0	 54.86	  0	       0	  1	      0	       1	  0	      0;
];


%%-----  OPF Data  -----%%

%%
%modification
%Aghdam F H , Hagh M T . Security Constrained Unit Commitment (SCUC)
%formulation and its solving with Modified Imperialist Competitive Algorithm (MICA)[J]. 
%Journal of King Saud University - Engineering Sciences, 2017:S1018363917301058.

%Node voltage amplitude adjustment
mpc.bus(:,12) = 1.1;
mpc.bus(:,13) = 0.9;
mpc.gencost = [
	2	0	0	1	0    	2	    0;
	2	0	0	1	0	    2	    0;
	2	0	0	1	0	    2	    0;
	2	0	0	1	0	    2	    0;
	2	0	0	1	0	    2	    0;
	2	0	0	1	0	    2	    0;
	2	0	0	1	0	    10	    0;%Outside purchase
	2	0	0	1	0	    20	    0;%Outside purchase
];

X = mpc.branch(:,4);
R = mpc.branch(:,3);
mpc.branch(:,4) = X/2;
mpc.branch(:,3) = R/2;

mpc.PD = [
88.51456442;
88.51456442;
88.51456442;
88.51456442;
88.51456442;
88.51456442;
88.51456442;
93.15786406;
112.3641394;
112.3641394;
132.1172701;
132.1172701;
123.9454442;
123.9454442;
123.9454442;
123.9454442;
111.9969199;
111.9969199;
111.9969199;
111.9969199;
111.9969199;
131.3828311;
117.7659033;
105.188456;
];

